/*--------------------------------*- C++ -*----------------------------------*\
| =========                 |                                                 |
| \      /  F ield         | OpenFOAM: The Open Source CFD Toolbox           |
|  \    /   O peration     | Version:  5                                     |
|   \  /    A nd           | Web:      www.OpenFOAM.org                      |
|    \/     M anipulation  |                                                 |
\*---------------------------------------------------------------------------*/
FoamFile
{
    version     2.0;
    format      ascii;
    class       dictionary;
    object      blockMeshDict;
}
// * * * * * * * * * * * * * * * * * * * * * * * * * * * * * * * * * * * * * //

convertToMeters 1;
gemetry
{
}
vertices
(
    (0 0 0) // 0
    (1 0 0) // 1
    (1 12 0) // 2
    (-11 0 0) // 3
    (0 0 0.3) // 4
    (1 0 0.3) // 5
    (1 12 0.3) // 6
    (-11 0 0.3) // 7
    (21 1.83027060 0) // 8
    (21 12 0) // 9
    (21 1.83027060 0.3) // 10
    (21 12 0.3) // 11
    (1 -12 0) // 12
    (1 -12 0.3) // 13
    (21 -12 0) // 14
    (21 -12 0.3) // 15
    (1 0 0) // 16
    (1 0 0.3) // 17
);

blocks
(
    hex (0 1 2 3 4 5 6 7) (41 48 1)  // block 1
    edgeGrading
    (
    // x-direction expansion ratio
    (
        (0.4 0.5121951219512195 3.5000000000000004)
        (0.6 0.4878048780487805 0.8571428571428571)
    )
    0.03 0.03
    (
        (0.4 0.5121951219512195 3.5000000000000004)
        (0.6 0.4878048780487805 0.8571428571428571)
    )
    // y-direction expansion ratio
    (
        (0.041666666666666664 0.3541666666666667 22.186111067404354)
        (0.9583333333333334 0.6458333333333333 9.014648822065904)
    )
    (
        (0.041666666666666664 0.3541666666666667 22.186111067404354)
        (0.9583333333333334 0.6458333333333333 9.014648822065904)
    )
    (
        (0.041666666666666664 0.3541666666666667 22.186111067404354)
        (0.9583333333333334 0.6458333333333333 9.014648822065904)
    )
        (0.041666666666666664 0.3541666666666667 22.186111067404354)
        (0.9583333333333334 0.6458333333333333 9.014648822065904)
    )

    // z-direction expansion ratio
    1 1 1 1
    )
    
    hex (1 8 9 2 5 10 11 6) (74 48 1)    // block 2
    edgeGrading
    (
    // x-direction expansion ratio
    33.333333333333336 33.333333333333336 33.333333333333336 33.333333333333336
    // y-direction expansion ratio
    (
        (0.041666666666666664 0.3541666666666667 22.186111067404354)
        (0.9583333333333334 0.6458333333333333 9.014648822065904)
    )
    13.95816591803753 13.95816591803753
    (
        (0.041666666666666664 0.3541666666666667 22.186111067404354)
        (0.9583333333333334 0.6458333333333333 9.014648822065904)
    )

    // z-direction expansion ratio
    1 1 1 1
    ) 

    hex (3 12 16 0 7 13 17 4) (41 48 1)    // block 3
    edgeGrading
    // x-direction expansion ratio
    0.03
    (
        (0.4 0.5121951219512195 3.5000000000000004)
        (0.6 0.4878048780487805 0.8571428571428571)
    )
    (
        (0.4 0.5121951219512195 3.5000000000000004)
        (0.6 0.4878048780487805 0.8571428571428571)
    )
    0.03
    // y-direction expansion ratio
    (
        (0.9583333333333334 0.6458333333333333 0.11093055533702177)
        (0.041666666666666664 0.3541666666666667 0.04507324411032952)
    )
    (
        (0.9583333333333334 0.6458333333333333 0.11093055533702177)
        (0.041666666666666664 0.3541666666666667 0.04507324411032952)
    )
    (
        (0.9583333333333334 0.6458333333333333 0.11093055533702177)
        (0.041666666666666664 0.3541666666666667 0.04507324411032952)
    )
    (
        (0.9583333333333334 0.6458333333333333 0.11093055533702177)
        (0.041666666666666664 0.3541666666666667 0.04507324411032952)
    )

    // z-direction expansion ratio
    1 1 1 1
    )

    hex (12 14 8 16 13 15 10 17) (74 48 1)    // block 4
    edgeGrading
    (
    // x-direction expansion ratio
    33.333333333333336 33.333333333333336 33.333333333333336 33.333333333333336
    )
    // y-direction expansion ratio
    (
        (0.9583333333333334 0.6458333333333333 0.11093055533702177)
        (0.041666666666666664 0.3541666666666667 22.186111067404354)
    )
    0.07164265032182657 0.07164265032182657
    (
        (0.9583333333333334 0.6458333333333333 0.11093055533702177)
        (0.041666666666666664 0.3541666666666667 22.186111067404354)
    )
    // z-direction expansion ratio
    1 1 1 1
    )
);


edges
(
    arc 3 2 (-7.4852813742385695 8.485281374238571 0)
    arc 7 6 (-7.4852813742385695 8.485281374238571 0.3)

    spline 1 0
    (
        (0 0 0)
        (0 0 0.3)
    )

    spline 5 4
    (
        (1 0 0)
        (1 0 0.3)
    )

    arc 3 12 (-7.4852813742385695 -8.485281374238571 0)
    arc 7 13 (-7.4852813742385695 -8.485281374238571 0.3)

    spline 0 16
    (
        (0 0 0)
        (1 0 0)
    )

    spline 4 17
    (
        (0 0 0.3)
        (1 0 0.3)
    )
);

faces
(

);

faces
(

);

defaultPatch
{
    name frontAndBack;
    type empty;
}

boundary
(
inlet              // patch name
        {
            type patch; 
            faces
            (
                (9 2 6 11)  
                (2 3 7 6  )  
                (3 12 13 7  )
                (12 15 14 13  )
            );
        }

outlet              // patch name
        {
            type patch;    
            faces
            (
                (8 9 10 11)  
                (15 8 10 14  ) 
            );
        }

walls              // patch name
        {
            type wall; 
            faces
            (
                (0 1 5 4)  
                (0 4 17 16  ) 
            );
        }

interface1              // patch name
        {
            type patch;   
            faces
            (
                (1 8 10 5)  
            );
        }
interface2              // patch name
        {
            type patch;    
            faces
            (
                (16 17 10 8)  
            );
        }
);

 mergePatchPairs
(
    ( interface1 interface2 )
);

